Version 4
SHEET 1 1348 680
WIRE 736 64 672 64
WIRE 864 64 816 64
WIRE 1120 64 1056 64
WIRE 1264 64 1200 64
WIRE 1280 64 1264 64
WIRE 288 96 240 96
WIRE -80 176 -144 176
WIRE 288 192 288 176
WIRE 288 192 240 192
WIRE -336 208 -336 160
WIRE -144 208 -144 176
WIRE 288 208 288 192
WIRE 1280 208 1280 64
WIRE 864 224 864 64
WIRE 672 240 672 64
WIRE 1056 240 1056 64
WIRE 288 288 240 288
WIRE -336 320 -336 288
WIRE -144 320 -144 272
WIRE -144 320 -336 320
WIRE -80 320 -144 320
WIRE 864 320 864 288
WIRE 1280 320 1280 272
FLAG 672 320 0
FLAG 864 320 0
FLAG 864 64 res1
FLAG 1056 320 0
FLAG 1280 320 0
FLAG 1264 64 res2
FLAG -336 160 0
FLAG -80 176 1
FLAG -80 320 2
FLAG 240 96 3
FLAG 240 192 4
FLAG 240 288 5
SYMBOL res 272 192 R0
SYMATTR InstName R2
SYMATTR Value R=0.9*(V(res1)+V(res2))
SYMBOL LED -160 208 R0
SYMATTR InstName D1
SYMATTR Value LedWHITE
SYMATTR Description Diode
SYMATTR Type diode
SYMBOL bv 672 224 R0
SYMATTR InstName B1
SYMATTR Value V=0.655/log10(1+I(D1))
SYMBOL cap 848 224 R0
SYMATTR InstName C1
SYMATTR Value 170n
SYMBOL res 832 48 R90
WINDOW 0 0 56 VBottom 2
WINDOW 3 32 56 VTop 2
SYMATTR InstName R12
SYMATTR Value 10k
SYMBOL cap 1264 208 R0
SYMATTR InstName C2
SYMATTR Value 318µ
SYMBOL res 1216 48 R90
WINDOW 0 0 56 VBottom 2
WINDOW 3 32 56 VTop 2
SYMATTR InstName R13
SYMATTR Value 1Meg
SYMBOL voltage 1056 224 R0
WINDOW 123 0 0 Left 0
WINDOW 39 0 0 Left 0
SYMATTR InstName V1
SYMATTR Value 10
SYMBOL res -352 192 R0
SYMATTR InstName R11
SYMATTR Value 0.0001
SYMBOL res 272 80 R0
SYMATTR InstName R1
SYMATTR Value R=1.1*(V(res1)+V(res2))
