Version 4
SHEET 1 1456 696
WIRE 160 96 -32 96
WIRE 464 96 368 96
WIRE -32 128 -32 96
WIRE 160 128 160 96
WIRE 368 128 368 96
WIRE 160 240 160 208
WIRE 368 240 368 208
WIRE -32 352 -32 208
WIRE 160 352 160 320
WIRE 160 352 -32 352
WIRE 368 352 368 320
WIRE 464 352 368 352
WIRE -32 368 -32 352
FLAG -32 368 0
SYMBOL ind2 144 112 R0
SYMATTR InstName L1
SYMATTR Value 888m
SYMATTR Type ind
SYMATTR SpiceLine Rser=20.2
SYMBOL ind2 144 224 R0
SYMATTR InstName L2
SYMATTR Value 876.7m
SYMATTR Type ind
SYMATTR SpiceLine Rser=106.7
SYMBOL voltage -32 112 R0
WINDOW 3 12 104 Left 2
WINDOW 123 0 0 Left 0
WINDOW 39 0 0 Left 0
SYMATTR InstName V1
SYMATTR Value SINE(0 345 50)
SYMBOL ind2 384 112 M0
SYMATTR InstName L3
SYMATTR Value 25m
SYMATTR Type ind
SYMATTR SpiceLine Rser=13.9
SYMBOL ind2 384 224 M0
SYMATTR InstName L4
SYMATTR Value 25.4m
SYMATTR Type ind
SYMATTR SpiceLine Rser=103
TEXT 152 48 Left 2 !K1 L1 L2 L3 L4 0.977
TEXT -88 40 Left 2 !.tran 100m
