Version 4
SHEET 1 1456 696
WIRE 160 96 -32 96
WIRE 480 96 336 96
WIRE -32 128 -32 96
WIRE 160 128 160 96
WIRE 336 128 336 96
WIRE 480 128 480 96
WIRE -32 240 -32 208
WIRE 160 240 160 208
WIRE 160 240 -32 240
WIRE 336 240 336 208
WIRE 480 240 480 208
WIRE 480 240 336 240
WIRE -32 256 -32 240
WIRE 480 256 480 240
FLAG -32 256 0
FLAG 480 256 0
SYMBOL ind2 144 112 R0
SYMATTR InstName L1
SYMATTR Value 2.557
SYMATTR Type ind
SYMATTR SpiceLine Rser=128.3
SYMBOL ind2 352 112 M0
SYMATTR InstName L2
SYMATTR Value 9.03m
SYMATTR Type ind
SYMATTR SpiceLine Rser=0.7
SYMBOL voltage -32 112 R0
WINDOW 3 12 104 Left 2
WINDOW 123 0 0 Left 0
WINDOW 39 0 0 Left 0
SYMATTR InstName V1
SYMATTR Value SINE(0 345 50)
SYMBOL res 464 112 R0
SYMATTR InstName R1
SYMATTR Value 14.1
TEXT 168 64 Left 2 !K1 L1 L2 0.94
TEXT -88 40 Left 2 !.tran 100m
TEXT 112 272 Left 2 ;Small 12V transformer
